# generated using pymatgen
data_CuSbPbS3
_symmetry_space_group_name_H-M   'P 1'
_cell_length_a   7.88543252
_cell_length_b   8.28655254
_cell_length_c   8.81615491
_cell_angle_alpha   89.99452922
_cell_angle_beta   89.99231362
_cell_angle_gamma   89.99232550
_symmetry_Int_Tables_number   1
_chemical_formula_structural   CuSbPbS3
_chemical_formula_sum   'Cu4 Sb4 Pb4 S12'
_cell_volume   576.074446081
_cell_formula_units_Z   4
loop_
 _symmetry_equiv_pos_site_id
 _symmetry_equiv_pos_as_xyz
  1  'x, y, z'
loop_
 _atom_site_type_symbol
 _atom_site_label
 _atom_site_symmetry_multiplicity
 _atom_site_fract_x
 _atom_site_fract_y
 _atom_site_fract_z
 _atom_site_occupancy
  Cu  Cu1  1  0.245372  0.277710  0.432185  1
  Cu  Cu2  1  0.745401  0.722099  0.932007  1
  Cu  Cu3  1  0.754581  0.277742  0.431961  1
  Cu  Cu4  1  0.254824  0.722643  0.932913  1
  Sb  Sb5  1  0.500013  0.068816  0.059801  1
  Sb  Sb6  1  0.999992  0.931159  0.559882  1
  Sb  Sb7  1  0.499933  0.490822  0.658494  1
  Sb  Sb8  1  0.999929  0.509107  0.158406  1
  Pb  Pb9  1  0.500009  0.930650  0.512596  1
  Pb  Pb10  1  0.999983  0.069288  0.012568  1
  Pb  Pb11  1  0.499989  0.552026  0.173141  1
  Pb  Pb12  1  0.999962  0.447918  0.673187  1
  S  S13  1  0.000163  0.769427  0.798376  1
  S  S14  1  0.000025  0.244059  0.291912  1
  S  S15  1  0.268807  0.561377  0.478906  1
  S  S16  1  0.499901  0.755846  0.792026  1
  S  S17  1  0.231210  0.438722  0.978869  1
  S  S18  1  0.764907  0.111075  0.645052  1
  S  S19  1  0.731177  0.561427  0.479023  1
  S  S20  1  0.235024  0.111047  0.645086  1
  S  S21  1  0.768800  0.438439  0.978888  1
  S  S22  1  0.264925  0.889214  0.145510  1
  S  S23  1  0.500042  0.230562  0.298241  1
  S  S24  1  0.735029  0.888824  0.144971  1
