# generated using pymatgen
data_Fe3O4
_symmetry_space_group_name_H-M   'P 1'
_cell_length_a   6.03399052
_cell_length_b   6.03399052
_cell_length_c   6.03399052
_cell_angle_alpha   60.00000000
_cell_angle_beta   60.00000000
_cell_angle_gamma   60.00000000
_symmetry_Int_Tables_number   1
_chemical_formula_structural   Fe3O4
_chemical_formula_sum   'Fe6 O8'
_cell_volume   155.345570229
_cell_formula_units_Z   2
loop_
 _symmetry_equiv_pos_site_id
 _symmetry_equiv_pos_as_xyz
  1  'x, y, z'
loop_
 _atom_site_type_symbol
 _atom_site_label
 _atom_site_symmetry_multiplicity
 _atom_site_fract_x
 _atom_site_fract_y
 _atom_site_fract_z
 _atom_site_occupancy
  Fe  Fe1  1  0.625000  0.625000  0.125000  1
  Fe  Fe2  1  0.625000  0.625000  0.625000  1
  Fe  Fe3  1  0.625000  0.125000  0.625000  1
  Fe  Fe4  1  0.125000  0.625000  0.625000  1
  Fe  Fe5  1  0.000000  0.000000  0.000000  1
  Fe  Fe6  1  0.250000  0.250000  0.250000  1
  O  O7  1  0.379349  0.379349  0.379349  1
  O  O8  1  0.870651  0.388048  0.870651  1
  O  O9  1  0.388048  0.870651  0.870651  1
  O  O10  1  0.379349  0.861952  0.379349  1
  O  O11  1  0.870651  0.870651  0.388048  1
  O  O12  1  0.861952  0.379349  0.379349  1
  O  O13  1  0.870651  0.870651  0.870651  1
  O  O14  1  0.379349  0.379349  0.861952  1

