# generated using pymatgen
data_SiO2
_symmetry_space_group_name_H-M   'P 1'
_cell_length_a   12.01479557
_cell_length_b   12.01479557
_cell_length_c   12.01479557
_cell_angle_alpha   90.00000000
_cell_angle_beta   90.00000000
_cell_angle_gamma   90.00000000
_symmetry_Int_Tables_number   1
_chemical_formula_structural   SiO2
_chemical_formula_sum   'Si24 O48'
_cell_volume   1734.3995702
_cell_formula_units_Z   24
loop_
 _symmetry_equiv_pos_site_id
 _symmetry_equiv_pos_as_xyz
  1  'x, y, z'
loop_
 _atom_site_type_symbol
 _atom_site_label
 _atom_site_symmetry_multiplicity
 _atom_site_fract_x
 _atom_site_fract_y
 _atom_site_fract_z
 _atom_site_occupancy
  Si  Si1  1  0.000000  0.182927  0.368188  1
  Si  Si2  1  0.000000  0.631812  0.182927  1
  Si  Si3  1  0.000000  0.368188  0.817073  1
  Si  Si4  1  0.368188  0.182927  0.000000  1
  Si  Si5  1  0.631812  0.182927  0.000000  1
  Si  Si6  1  0.817073  0.000000  0.368188  1
  Si  Si7  1  0.182927  0.000000  0.368188  1
  Si  Si8  1  0.368188  0.000000  0.182927  1
  Si  Si9  1  0.182927  0.368188  0.000000  1
  Si  Si10  1  0.817073  0.631812  0.000000  1
  Si  Si11  1  0.368188  0.000000  0.817073  1
  Si  Si12  1  0.817073  0.368188  0.000000  1
  Si  Si13  1  0.631812  0.000000  0.182927  1
  Si  Si14  1  0.631812  0.000000  0.817073  1
  Si  Si15  1  0.182927  0.631812  0.000000  1
  Si  Si16  1  0.000000  0.817073  0.631812  1
  Si  Si17  1  0.000000  0.182927  0.631812  1
  Si  Si18  1  0.000000  0.817073  0.368188  1
  Si  Si19  1  0.182927  0.000000  0.631812  1
  Si  Si20  1  0.817073  0.000000  0.631812  1
  Si  Si21  1  0.368188  0.817073  0.000000  1
  Si  Si22  1  0.631812  0.817073  0.000000  1
  Si  Si23  1  0.000000  0.368188  0.182927  1
  Si  Si24  1  0.000000  0.631812  0.817073  1
  O  O25  1  0.000000  0.213592  0.500000  1
  O  O26  1  0.000000  0.500000  0.213592  1
  O  O27  1  0.000000  0.500000  0.786408  1
  O  O28  1  0.500000  0.213592  0.000000  1
  O  O29  1  0.786408  0.000000  0.500000  1
  O  O30  1  0.213592  0.000000  0.500000  1
  O  O31  1  0.500000  0.000000  0.213592  1
  O  O32  1  0.213592  0.500000  0.000000  1
  O  O33  1  0.786408  0.500000  0.000000  1
  O  O34  1  0.500000  0.000000  0.786408  1
  O  O35  1  0.000000  0.786408  0.500000  1
  O  O36  1  0.500000  0.786408  0.000000  1
  O  O37  1  0.110939  0.110939  0.337658  1
  O  O38  1  0.110939  0.662342  0.110939  1
  O  O39  1  0.110939  0.337658  0.889061  1
  O  O40  1  0.337658  0.110939  0.889061  1
  O  O41  1  0.662342  0.110939  0.110939  1
  O  O42  1  0.889061  0.110939  0.337658  1
  O  O43  1  0.110939  0.889061  0.337658  1
  O  O44  1  0.337658  0.110939  0.110939  1
  O  O45  1  0.110939  0.337658  0.110939  1
  O  O46  1  0.889061  0.662342  0.110939  1
  O  O47  1  0.337658  0.889061  0.889061  1
  O  O48  1  0.889061  0.337658  0.889061  1
  O  O49  1  0.662342  0.889061  0.110939  1
  O  O50  1  0.662342  0.110939  0.889061  1
  O  O51  1  0.110939  0.662342  0.889061  1
  O  O52  1  0.110939  0.889061  0.662342  1
  O  O53  1  0.889061  0.110939  0.662342  1
  O  O54  1  0.889061  0.889061  0.337658  1
  O  O55  1  0.110939  0.110939  0.662342  1
  O  O56  1  0.889061  0.889061  0.662342  1
  O  O57  1  0.337658  0.889061  0.110939  1
  O  O58  1  0.662342  0.889061  0.889061  1
  O  O59  1  0.889061  0.337658  0.110939  1
  O  O60  1  0.889061  0.662342  0.889061  1
  O  O61  1  0.000000  0.297079  0.297079  1
  O  O62  1  0.000000  0.702921  0.297079  1
  O  O63  1  0.000000  0.297079  0.702921  1
  O  O64  1  0.297079  0.297079  0.000000  1
  O  O65  1  0.702921  0.297079  0.000000  1
  O  O66  1  0.702921  0.000000  0.297079  1
  O  O67  1  0.297079  0.000000  0.297079  1
  O  O68  1  0.702921  0.702921  0.000000  1
  O  O69  1  0.297079  0.000000  0.702921  1
  O  O70  1  0.702921  0.000000  0.702921  1
  O  O71  1  0.297079  0.702921  0.000000  1
  O  O72  1  0.000000  0.702921  0.702921  1
